<?xml version="1.0" encoding="iso-8859-1"?>

<configuration xmlns:xsi="http://www.w3.org/2001/XMLSchema-instance" xsi:noNamespaceSchemaLocation="http://sumo.sf.net/xsd/sumoConfiguration.xsd">

  <input>
    <net-file value="montreal_A_1.net.xml"/>
	<route-files value="montreal.trips.xml"/>
    <additional-files value="taz.xml"/>
  </input>
  
  <time>
    <begin value="28800"/>
    <end value="32400"/>
    <step-length value="0.1"/>
  </time>
  
  <routing>
    <device.rerouting.with-taz value="true"/>
  </routing>
  
</configuration>
