<?xml version="1.0" encoding="UTF-8"?>

<!-- generated on 2018-08-31 15:34:27 by Netedit Version 0.28.0
<?xml version="1.0" encoding="UTF-8"?>

<configuration xmlns:xsi="http://www.w3.org/2001/XMLSchema-instance" xsi:noNamespaceSchemaLocation="http://sumo.dlr.de/xsd/netedit.exeConfiguration.xsd">

    <input>
        <sumo-net-file value="C:\Users\Administrateur.BALZAC14\Documents\Projet%20Marielba%20Urdaneta\Montreal%20Centre-Ville\montreal.net.xml"/>
    </input>

    <output>
        <output-file value="C:\Users\Administrateur.BALZAC14\Documents\Projet%20Marielba%20Urdaneta\Montreal%20Centre-Ville\montreal.net.xml"/>
        <output.street-names value="true"/>
    </output>

    <processing>
        <no-turnarounds value="true"/>
        <offset.disable-normalization value="true"/>
        <lefthand value="false"/>
        <junctions.corner-detail value="0"/>
    </processing>

</configuration>
-->

<net version="0.27" xmlns:xsi="http://www.w3.org/2001/XMLSchema-instance" xsi:noNamespaceSchemaLocation="http://sumo.dlr.de/xsd/net_file.xsd">

    <location netOffset="-610466.48,-5037683.81" convBoundary="113.01,208.81,2761.34,4323.11" origBoundary="-73.585532,45.483842,-73.548615,45.524521" projParameter="+proj=utm +zone=18 +ellps=WGS84 +datum=WGS84 +units=m +no_defs"/>

    <edge id=":1204328701_0" function="internal">
        <lane id=":1204328701_0_0" index="0" disallow="tram rail_urban rail rail_electric ship" speed="11.11" length="5.02" shape="525.79,1796.02 524.90,1794.98 523.88,1794.47 522.75,1794.52 521.51,1795.10"/>
    </edge>
    <edge id=":1204328701_1" function="internal">
        <lane id=":1204328701_1_0" index="0" disallow="tram rail_urban rail rail_electric ship" speed="11.11" length="10.33" shape="525.79,1796.02 524.61,1793.43 524.53,1791.09 525.54,1788.99 527.64,1787.13"/>
    </edge>
    <edge id=":1204328701_2" function="internal">
        <lane id=":1204328701_2_0" index="0" disallow="tram rail_urban rail rail_electric ship" speed="11.11" length="5.06" shape="529.45,1789.89 528.43,1790.79 527.94,1791.82 527.99,1792.97 528.58,1794.25"/>
    </edge>
    <edge id=":1204328701_3" function="internal">
        <lane id=":1204328701_3_0" index="0" disallow="tram rail_urban rail rail_electric ship" speed="11.11" length="9.50" shape="529.45,1789.89 521.51,1795.10"/>
    </edge>
    <edge id=":1204328701_4" function="internal">
        <lane id=":1204328701_4_0" index="0" disallow="tram rail_urban rail rail_electric ship" speed="11.11" length="9.50" shape="519.70,1792.34 527.64,1787.13"/>
    </edge>
    <edge id=":1204328701_5" function="internal">
        <lane id=":1204328701_5_0" index="0" disallow="tram rail_urban rail rail_electric ship" speed="11.11" length="5.20" shape="519.70,1792.34 522.28,1791.13 524.62,1791.04"/>
    </edge>
    <edge id=":1204328701_6" function="internal">
        <lane id=":1204328701_6_0" index="0" speed="11.11" length="5.20" shape="524.62,1791.04 526.72,1792.08 528.58,1794.25"/>
    </edge>
    <edge id=":1204328704_0" function="internal">
        <lane id=":1204328704_0_0" index="0" disallow="tram rail_urban rail rail_electric ship" speed="11.11" length="9.61" shape="584.95,1876.85 576.89,1882.10"/>
    </edge>
    <edge id=":1204328704_1" function="internal">
        <lane id=":1204328704_1_0" index="0" disallow="tram rail_urban rail rail_electric ship" speed="11.11" length="5.37" shape="584.95,1876.85 582.36,1878.09 580.01,1878.19 579.88,1878.13"/>
    </edge>
    <edge id=":1204328704_6" function="internal">
        <lane id=":1204328704_6_0" index="0" speed="11.11" length="5.07" shape="579.88,1878.13 577.91,1877.15 576.04,1874.98"/>
    </edge>
    <edge id=":1204328704_2" function="internal">
        <lane id=":1204328704_2_0" index="0" disallow="tram rail_urban rail rail_electric ship" speed="11.11" length="5.03" shape="578.82,1873.21 579.72,1874.25 580.74,1874.75 581.87,1874.71 583.11,1874.11"/>
    </edge>
    <edge id=":1204328704_3" function="internal">
        <lane id=":1204328704_3_0" index="0" disallow="tram rail_urban rail rail_electric ship" speed="11.11" length="10.38" shape="578.82,1873.21 580.01,1875.81 580.08,1878.16 579.04,1880.26 576.89,1882.10"/>
    </edge>
    <edge id=":1204328704_4" function="internal">
        <lane id=":1204328704_4_0" index="0" disallow="tram rail_urban rail rail_electric ship" speed="11.11" length="5.06" shape="575.12,1879.31 576.16,1878.42 576.66,1877.40 576.62,1876.25 576.04,1874.98"/>
    </edge>
    <edge id=":1204328704_5" function="internal">
        <lane id=":1204328704_5_0" index="0" disallow="tram rail_urban rail rail_electric ship" speed="11.11" length="9.54" shape="575.12,1879.31 583.11,1874.11"/>
    </edge>
    <edge id=":1205481072_0" function="internal">
        <lane id=":1205481072_0_0" index="0" allow="private emergency authority army vip passenger hov taxi bus coach delivery truck trailer motorcycle evehicle custom1 custom2" speed="16.66" length="35.93" shape="1786.45,1919.45 1792.90,1954.79"/>
    </edge>
    <edge id=":1205481072_1" function="internal">
        <lane id=":1205481072_1_0" index="0" allow="private emergency authority army vip passenger hov taxi bus coach delivery truck trailer motorcycle evehicle custom1 custom2" speed="19.44" length="36.04" shape="1783.17,1920.23 1792.90,1954.79"/>
        <lane id=":1205481072_1_1" index="1" allow="private emergency authority army vip passenger hov taxi bus coach delivery truck trailer motorcycle evehicle custom1 custom2" speed="19.44" length="36.04" shape="1780.01,1921.19 1789.79,1955.87"/>
        <lane id=":1205481072_1_2" index="2" allow="private emergency authority army vip passenger hov taxi bus coach delivery truck trailer motorcycle evehicle custom1 custom2" speed="19.44" length="36.04" shape="1776.86,1922.15 1786.67,1956.96"/>
    </edge>
    <edge id=":1205481073_0" function="internal">
        <lane id=":1205481073_0_0" index="0" allow="private emergency authority army vip passenger hov taxi bus coach delivery truck trailer motorcycle evehicle custom1 custom2" speed="16.66" length="0.10" shape="1773.38,1978.58 1773.38,1978.58"/>
    </edge>
    <edge id=":1245728002_0" function="internal">
        <lane id=":1245728002_0_0" index="0" disallow="tram rail_urban rail rail_electric ship" speed="11.11" length="6.97" shape="1348.85,2665.70 1346.29,2659.31"/>
        <lane id=":1245728002_0_1" index="1" disallow="tram rail_urban rail rail_electric ship" speed="11.11" length="6.97" shape="1351.96,2664.58 1349.34,2658.05"/>
    </edge>
    <edge id=":1245728002_2" function="internal">
        <lane id=":1245728002_2_0" index="0" disallow="tram rail_urban rail rail_electric ship" speed="11.11" length="5.95" shape="1351.96,2664.58 1351.59,2662.97 1351.73,2661.56 1352.37,2660.36 1353.51,2659.36"/>
    </edge>
    <edge id=":1245728019_0" function="internal">
        <lane id=":1245728019_0_0" index="0" disallow="tram rail_urban rail rail_electric ship" speed="11.11" length="6.17" shape="1509.07,2555.87 1512.23,2561.13"/>
        <lane id=":1245728019_0_1" index="1" disallow="tram rail_urban rail rail_electric ship" speed="11.11" length="6.17" shape="1506.24,2557.56 1509.43,2562.87"/>
    </edge>
    <edge id=":1245728019_2" function="internal">
        <lane id=":1245728019_2_0" index="0" disallow="tram rail_urban rail rail_electric ship" speed="11.11" length="5.05" shape="1505.13,2561.88 1506.39,2561.31 1507.52,2561.28 1508.53,2561.81 1509.43,2562.87"/>
    </edge>
    <edge id=":1290876363_0" function="internal">
        <lane id=":1290876363_0_0" index="0" disallow="tram rail_urban rail rail_electric ship" speed="12.50" length="5.26" shape="1399.24,1549.39 1398.30,1550.28 1397.80,1551.36 1397.74,1552.63 1398.12,1554.09"/>
    </edge>
    <edge id=":1290876363_1" function="internal">
        <lane id=":1290876363_1_0" index="0" disallow="tram rail_urban rail rail_electric ship" speed="13.89" length="6.08" shape="1399.24,1549.39 1393.98,1552.65"/>
        <lane id=":1290876363_1_1" index="1" disallow="tram rail_urban rail rail_electric ship" speed="13.89" length="6.08" shape="1397.36,1546.67 1392.29,1549.81"/>
    </edge>
    <edge id=":1290876363_3" function="internal">
        <lane id=":1290876363_3_0" index="0" disallow="tram rail_urban rail rail_electric ship" speed="13.89" length="5.64" shape="1388.92,1544.15 1393.61,1541.24"/>
        <lane id=":1290876363_3_1" index="1" disallow="tram rail_urban rail rail_electric ship" speed="13.89" length="5.64" shape="1390.61,1546.99 1395.49,1543.95"/>
    </edge>
    <edge id=":1316_0" function="internal">
        <lane id=":1316_0_0" index="0" disallow="tram rail_urban rail rail_electric ship" speed="12.50" length="5.04" shape="2177.50,916.95 2177.13,915.61 2176.43,914.71 2175.39,914.26 2174.02,914.25"/>
    </edge>
    <edge id=":1316_1" function="internal">
        <lane id=":1316_1_0" index="0" disallow="tram rail_urban rail rail_electric ship" speed="12.50" length="14.65" shape="2177.50,916.95 2177.40,912.29 2177.90,908.70 2178.17,905.61 2177.36,902.46"/>
    </edge>
    <edge id=":1316_2" function="internal">
        <lane id=":1316_2_0" index="0" disallow="tram rail_urban rail rail_electric ship" speed="13.89" length="14.24" shape="2177.50,916.95 2177.19,912.50 2177.71,909.42 2179.16,906.54 2181.61,902.71"/>
        <lane id=":1316_2_1" index="1" disallow="tram rail_urban rail rail_electric ship" speed="13.89" length="14.24" shape="2180.77,916.51 2180.01,912.28 2179.47,909.22 2179.79,906.36 2181.61,902.71"/>
        <lane id=":1316_2_2" index="2" disallow="tram rail_urban rail rail_electric ship" speed="13.89" length="14.24" shape="2180.77,916.51 2180.53,912.75 2181.02,910.15 2182.29,907.72 2184.39,904.49"/>
    </edge>
    <edge id=":1316_5" function="internal">
        <lane id=":1316_5_0" index="0" disallow="tram rail_urban rail rail_electric ship" speed="13.89" length="9.44" shape="2190.56,908.44 2188.77,910.80 2187.53,912.80 2186.85,914.43 2186.72,915.70"/>
        <lane id=":1316_5_1" index="1" disallow="tram rail_urban rail rail_electric ship" speed="13.89" length="9.44" shape="2190.56,908.44 2189.17,909.83 2186.72,912.21 2184.41,914.63 2183.45,916.14"/>
    </edge>
    <edge id=":1316_7" function="internal">
        <lane id=":1316_7_0" index="0" disallow="tram rail_urban rail rail_electric ship" speed="12.50" length="16.19" shape="2187.77,906.65 2184.22,910.31 2180.89,912.48 2177.56,913.63 2174.02,914.25"/>
    </edge>
    <edge id=":1316_8" function="internal">
        <lane id=":1316_8_0" index="0" disallow="tram rail_urban rail rail_electric ship" speed="11.11" length="11.62" shape="2173.57,910.98 2176.59,910.06 2178.23,908.34 2178.49,905.80 2177.36,902.46"/>
    </edge>
    <edge id=":1316_9" function="internal">
        <lane id=":1316_9_0" index="0" disallow="tram rail_urban rail rail_electric ship" speed="12.50" length="11.77" shape="2173.57,910.98 2175.21,910.31 2177.10,908.70 2179.24,906.17 2181.61,902.71"/>
    </edge>
    <edge id=":1316_10" function="internal">
        <lane id=":1316_10_0" index="0" disallow="tram rail_urban rail rail_electric ship" speed="12.50" length="12.61" shape="2173.57,910.98 2177.56,910.84 2180.54,911.65 2182.50,913.42 2183.45,916.14"/>
    </edge>
    <edge id=":1320_0" function="internal">
        <lane id=":1320_0_0" index="0" disallow="tram rail_urban rail rail_electric ship" speed="13.89" length="5.19" shape="2247.61,1090.82 2246.91,1089.54 2246.00,1088.86 2244.86,1088.78 2243.50,1089.29"/>
    </edge>
    <edge id=":1320_1" function="internal">
        <lane id=":1320_1_0" index="0" disallow="tram rail_urban rail rail_electric ship" speed="13.89" length="16.40" shape="2247.61,1090.82 2241.56,1075.69"/>
        <lane id=":1320_1_1" index="1" disallow="tram rail_urban rail rail_electric ship" speed="13.89" length="16.40" shape="2250.70,1089.68 2244.58,1074.36"/>
    </edge>
    <edge id=":1320_3" function="internal">
        <lane id=":1320_3_0" index="0" disallow="tram rail_urban rail rail_electric ship" speed="12.50" length="6.38" shape="2250.70,1089.68 2249.69,1085.00 2250.05,1083.45"/>
    </edge>
    <edge id=":1320_14" function="internal">
        <lane id=":1320_14_0" index="0" speed="12.50" length="10.37" shape="2250.05,1083.45 2250.51,1081.43 2253.16,1078.98 2257.65,1077.63"/>
    </edge>
    <edge id=":1320_4" function="internal">
        <lane id=":1320_4_0" index="0" disallow="tram rail_urban rail rail_electric ship" speed="12.50" length="7.66" shape="2258.13,1080.90 2256.76,1081.49 2256.10,1082.77 2256.15,1084.74 2256.90,1087.40"/>
    </edge>
    <edge id=":1320_5" function="internal">
        <lane id=":1320_5_0" index="0" disallow="tram rail_urban rail rail_electric ship" speed="12.50" length="17.25" shape="2258.13,1080.90 2254.56,1081.48 2250.97,1082.37 2246.91,1083.90 2241.91,1086.40"/>
    </edge>
    <edge id=":1320_6" function="internal">
        <lane id=":1320_6_0" index="0" disallow="tram rail_urban rail rail_electric ship" speed="12.50" length="9.62" shape="2258.13,1080.90 2253.52,1081.04 2249.72,1080.00 2248.87,1079.35"/>
    </edge>
    <edge id=":1320_15" function="internal">
        <lane id=":1320_15_0" index="0" speed="12.50" length="6.68" shape="2248.87,1079.35 2246.75,1077.77 2244.58,1074.36"/>
    </edge>
    <edge id=":1320_7" function="internal">
        <lane id=":1320_7_0" index="0" disallow="tram rail_urban rail rail_electric ship" speed="12.50" length="9.86" shape="2250.63,1071.71 2252.14,1074.53 2253.82,1076.46 2255.65,1077.49 2257.65,1077.63"/>
    </edge>
    <edge id=":1320_8" function="internal">
        <lane id=":1320_8_0" index="0" disallow="tram rail_urban rail rail_electric ship" speed="13.89" length="16.80" shape="2250.63,1071.71 2256.90,1087.40"/>
        <lane id=":1320_8_1" index="1" disallow="tram rail_urban rail rail_electric ship" speed="13.89" length="16.80" shape="2247.61,1073.03 2253.80,1088.54"/>
    </edge>
    <edge id=":1320_10" function="internal">
        <lane id=":1320_10_0" index="0" disallow="tram rail_urban rail rail_electric ship" speed="13.89" length="6.28" shape="2247.61,1073.03 2248.60,1076.96 2248.22,1079.15"/>
    </edge>
    <edge id=":1320_16" function="internal">
        <lane id=":1320_16_0" index="0" speed="13.89" length="9.95" shape="2248.22,1079.15 2247.99,1080.49 2245.75,1083.64 2241.91,1086.40"/>
    </edge>
    <edge id=":1320_11" function="internal">
        <lane id=":1320_11_0" index="0" disallow="tram rail_urban rail rail_electric ship" speed="13.89" length="6.30" shape="2238.72,1080.62 2240.41,1079.48 2241.45,1078.27 2241.83,1077.01 2241.56,1075.69"/>
    </edge>
    <edge id=":1320_12" function="internal">
        <lane id=":1320_12_0" index="0" disallow="tram rail_urban rail rail_electric ship" speed="12.50" length="19.42" shape="2238.72,1080.62 2244.52,1078.30 2249.48,1077.66 2253.79,1077.75 2257.65,1077.63"/>
    </edge>
    <edge id=":1320_13" function="internal">
        <lane id=":1320_13_0" index="0" disallow="tram rail_urban rail rail_electric ship" speed="13.89" length="7.37" shape="2240.31,1083.51 2244.78,1081.82 2247.37,1082.01"/>
    </edge>
    <edge id=":1320_17" function="internal">
        <lane id=":1320_17_0" index="0" speed="13.89" length="9.68" shape="2247.37,1082.01 2248.52,1082.10 2251.53,1084.34 2253.80,1088.54"/>
    </edge>
    <edge id=":1329114156_0" function="internal">
        <lane id=":1329114156_0_0" index="0" allow="private emergency authority army vip passenger hov taxi bus coach delivery truck trailer motorcycle evehicle custom1 custom2" speed="15.28" length="52.26" shape="1109.60,1039.78 1064.81,1012.86"/>
    </edge>
    <edge id=":1329114156_1" function="internal">
        <lane id=":1329114156_1_0" index="0" allow="private emergency authority army vip passenger hov taxi bus coach delivery truck trailer motorcycle evehicle custom1 custom2" speed="19.44" length="52.25" shape="1109.60,1039.78 1066.60,1010.10"/>
        <lane id=":1329114156_1_1" index="1" allow="private emergency authority army vip passenger hov taxi bus coach delivery truck trailer motorcycle evehicle custom1 custom2" speed="19.44" length="52.25" shape="1111.50,1037.08 1068.49,1007.40"/>
        <lane id=":1329114156_1_2" index="2" allow="private emergency authority army vip passenger hov taxi bus coach delivery truck trailer motorcycle evehicle custom1 custom2" speed="19.44" length="52.25" shape="1113.39,1034.38 1070.39,1004.70"/>
    </edge>
    <edge id=":1382_0" function="internal">
        <lane id=":1382_0_0" index="0" disallow="tram rail_urban rail rail_electric ship" speed="13.89" length="6.45" shape="1302.62,3319.43 1300.78,3313.24"/>
        <lane id=":1382_0_1" index="1" disallow="tram rail_urban rail rail_electric ship" speed="13.89" length="6.45" shape="1305.78,3318.49 1303.94,3312.30"/>
    </edge>
    <edge id=":1382_2" function="internal">
        <lane id=":1382_2_0" index="0" disallow="tram rail_urban rail rail_electric ship" speed="13.89" length="6.44" shape="1310.27,3310.43 1312.10,3316.60"/>
        <lane id=":1382_2_1" index="1" disallow="tram rail_urban rail rail_electric ship" speed="13.89" length="6.44" shape="1307.11,3311.37 1308.94,3317.55"/>
    </edge>
    <edge id=":1382_4" function="internal">
        <lane id=":1382_4_0" index="0" disallow="tram rail_urban rail rail_electric ship" speed="12.50" length="5.58" shape="1298.54,3317.88 1299.82,3316.88 1300.62,3315.77 1300.94,3314.56 1300.78,3313.24"/>
    </edge>
    <edge id=":1382_5" function="internal">
        <lane id=":1382_5_0" index="0" disallow="tram rail_urban rail rail_electric ship" speed="12.50" length="12.14" shape="1298.54,3317.88 1302.51,3315.80 1305.57,3315.05 1307.71,3315.63 1308.94,3317.55"/>
    </edge>
    <edge id=":1387_0" function="internal">
        <lane id=":1387_0_0" index="0" disallow="tram rail_urban rail rail_electric ship" speed="12.50" length="5.13" shape="1835.07,2137.13 1834.25,2135.96 1833.27,2135.38 1832.13,2135.40 1830.84,2136.00"/>
    </edge>
    <edge id=":1387_1" function="internal">
        <lane id=":1387_1_0" index="0" disallow="tram rail_urban rail rail_electric ship" speed="13.89" length="7.34" shape="1835.07,2137.13 1831.75,2130.55"/>
        <lane id=":1387_1_1" index="1" disallow="tram rail_urban rail rail_electric ship" speed="13.89" length="7.34" shape="1838.01,2135.63 1834.70,2129.07"/>
        <lane id=":1387_1_2" index="2" disallow="tram rail_urban rail rail_electric ship" speed="13.89" length="7.34" shape="1840.95,2134.13 1837.66,2127.60"/>
    </edge>
    <edge id=":1387_4" function="internal">
        <lane id=":1387_4_0" index="0" disallow="tram rail_urban rail rail_electric ship" speed="11.11" length="13.23" shape="1841.89,2128.74 1830.84,2136.00"/>
    </edge>
    <edge id=":1387_5" function="internal">
        <lane id=":1387_5_0" index="0" disallow="tram rail_urban rail rail_electric ship" speed="12.50" length="6.68" shape="1841.89,2128.74 1839.37,2130.13 1837.33,2130.65 1835.77,2130.30 1834.70,2129.07"/>
        <lane id=":1387_5_1" index="1" disallow="tram rail_urban rail rail_electric ship" speed="12.50" length="6.68" shape="1841.89,2128.74 1840.59,2129.35 1839.45,2129.36 1838.48,2128.78 1837.66,2127.60"/>
    </edge>
    <edge id=":1391_0" function="internal">
        <lane id=":1391_0_0" index="0" disallow="tram rail_urban rail rail_electric ship" speed="11.11" length="9.51" shape="2222.96,2406.32 2218.37,2397.84"/>
        <lane id=":1391_0_1" index="1" disallow="tram rail_urban rail rail_electric ship" speed="11.11" length="9.51" shape="2225.83,2404.71 2221.31,2396.35"/>
        <lane id=":1391_0_2" index="2" disallow="tram rail_urban rail rail_electric ship" speed="11.11" length="9.51" shape="2228.71,2403.10 2224.26,2394.85"/>
    </edge>
    <edge id=":1391_3" function="internal">
        <lane id=":1391_3_0" index="0" disallow="tram rail_urban rail rail_electric ship" speed="11.11" length="7.02" shape="2228.71,2403.10 2227.72,2400.89 2227.44,2399.14 2227.90,2397.85 2229.09,2397.01"/>
    </edge>
    <edge id=":1391_4" function="internal">
        <lane id=":1391_4_0" index="0" disallow="tram rail_urban rail rail_electric ship" speed="11.11" length="6.16" shape="2216.39,2403.22 2217.72,2401.77 2218.49,2400.39 2218.71,2399.08 2218.37,2397.84"/>
    </edge>
    <edge id=":1391_5" function="internal">
        <lane id=":1391_5_0" index="0" disallow="tram rail_urban rail rail_electric ship" speed="11.11" length="13.56" shape="2218.64,2405.64 2229.09,2397.01"/>
    </edge>
    <edge id=":1400_0" function="internal">
        <lane id=":1400_0_0" index="0" disallow="tram rail_urban rail rail_electric ship" speed="11.11" length="9.22" shape="1222.37,2444.90 1217.75,2436.75"/>
        <lane id=":1400_0_1" index="1" disallow="tram rail_urban rail rail_electric ship" speed="11.11" length="9.22" shape="1225.16,2443.15 1220.69,2435.26"/>
    </edge>
    <edge id=":1400_2" function="internal">
        <lane id=":1400_2_0" index="0" disallow="tram rail_urban rail rail_electric ship" speed="11.11" length="6.77" shape="1225.16,2443.15 1224.20,2441.22 1223.91,2439.56 1224.28,2438.19 1225.32,2437.10"/>
    </edge>
    <edge id=":1400_3" function="internal">
        <lane id=":1400_3_0" index="0" disallow="tram rail_urban rail rail_electric ship" speed="11.11" length="5.22" shape="1216.27,2441.20 1217.42,2440.24 1218.04,2439.17 1218.15,2438.01 1217.75,2436.75"/>
    </edge>
    <edge id=":1400_4" function="internal">
        <lane id=":1400_4_0" index="0" disallow="tram rail_urban rail rail_electric ship" speed="11.11" length="10.02" shape="1218.08,2443.96 1220.40,2442.13 1221.73,2440.57 1223.05,2438.98 1225.32,2437.10"/>
    </edge>
    <edge id=":1404_0" function="internal">
        <lane id=":1404_0_0" index="0" disallow="tram rail_urban rail rail_electric ship" speed="12.50" length="5.00" shape="1284.18,855.00 1283.15,855.90 1282.65,856.92 1282.70,858.05 1283.28,859.29"/>
    </edge>
    <edge id=":1404_1" function="internal">
        <lane id=":1404_1_0" index="0" disallow="tram rail_urban rail rail_electric ship" speed="12.50" length="12.79" shape="1284.18,855.00 1273.45,861.97"/>
        <lane id=":1404_1_1" index="1" disallow="tram rail_urban rail rail_electric ship" speed="12.50" length="12.79" shape="1282.38,852.23 1271.65,859.20"/>
    </edge>
    <edge id=":1404_3" function="internal">
        <lane id=":1404_3_0" index="0" disallow="tram rail_urban rail rail_electric ship" speed="12.50" length="6.48" shape="1273.01,846.71 1274.02,847.69 1275.32,848.02 1276.90,847.69 1278.77,846.70"/>
    </edge>
    <edge id=":1404_4" function="internal">
        <lane id=":1404_4_0" index="0" disallow="tram rail_urban rail rail_electric ship" speed="13.89" length="16.26" shape="1273.01,846.71 1275.88,850.58 1278.15,853.00 1280.42,855.41 1283.28,859.29"/>
        <lane id=":1404_4_1" index="1" disallow="tram rail_urban rail rail_electric ship" speed="13.89" length="16.26" shape="1273.01,846.71 1275.44,850.86 1276.77,853.90 1278.10,856.94 1280.53,861.10"/>
        <lane id=":1404_4_2" index="2" disallow="tram rail_urban rail rail_electric ship" speed="13.89" length="16.26" shape="1270.26,848.53 1272.69,852.68 1274.02,855.72 1275.34,858.76 1277.77,862.92"/>
    </edge>
    <edge id=":1404_7" function="internal">
        <lane id=":1404_7_0" index="0" disallow="tram rail_urban rail rail_electric ship" speed="13.89" length="11.89" shape="1270.26,848.53 1272.35,852.24 1273.29,855.25 1273.05,857.57 1271.65,859.20"/>
    </edge>
    <edge id=":1404_8" function="internal">
        <lane id=":1404_8_0" index="0" disallow="tram rail_urban rail rail_electric ship" speed="12.50" length="12.78" shape="1268.06,853.67 1278.77,846.70"/>
        <lane id=":1404_8_1" index="1" disallow="tram rail_urban rail rail_electric ship" speed="12.50" length="12.78" shape="1269.86,856.43 1280.57,849.47"/>
    </edge>
    <edge id=":1404_10" function="internal">
        <lane id=":1404_10_0" index="0" disallow="tram rail_urban rail rail_electric ship" speed="13.89" length="1.76" shape="1269.86,856.43 1271.31,856.22 1271.57,856.36"/>
    </edge>
    <edge id=":1404_11" function="internal">
        <lane id=":1404_11_0" index="0" speed="13.89" length="9.14" shape="1271.57,856.36 1273.11,857.23 1275.27,859.46 1277.77,862.92"/>
    </edge>
    <edge id=":1419_0" function="internal">
        <lane id=":1419_0_0" index="0" disallow="tram rail_urban rail rail_electric ship" speed="11.11" length="10.56" shape="1972.72,1924.38 1971.35,1921.90 1970.76,1920.01 1970.17,1918.12 1968.80,1915.64"/>
        <lane id=":1419_0_1" index="1" disallow="tram rail_urban rail rail_electric ship" speed="11.11" length="10.56" shape="1972.72,1924.38 1971.70,1921.49 1972.13,1919.09 1972.56,1916.69 1971.53,1913.79"/>
        <lane id=":1419_0_2" index="2" disallow="tram rail_urban rail rail_electric ship" speed="11.11" length="10.56" shape="1975.45,1922.54 1974.43,1919.64 1974.86,1917.24 1975.29,1914.84 1974.27,1911.94"/>
    </edge>
    <edge id=":1419_3" function="internal">
        <lane id=":1419_3_0" index="0" disallow="tram rail_urban rail rail_electric ship" speed="11.11" length="6.18" shape="1966.71,1920.64 1968.29,1919.44 1969.17,1918.21 1969.34,1916.94 1968.80,1915.64"/>
    </edge>
    <edge id=":1419_4" function="internal">
        <lane id=":1419_4_0" index="0" disallow="tram rail_urban rail rail_electric ship" speed="11.11" length="10.71" shape="1968.44,1923.46 1972.13,1921.39 1974.98,1920.24 1977.00,1920.01 1978.19,1920.69"/>
    </edge>
    <edge id=":1449_0" function="internal">
        <lane id=":1449_0_0" index="0" disallow="tram rail_urban rail rail_electric ship" speed="11.11" length="5.33" shape="1369.75,2721.82 1368.93,2720.55 1367.95,2719.95 1366.81,2720.04 1365.50,2720.81"/>
    </edge>
    <edge id=":1449_1" function="internal">
        <lane id=":1449_1_0" index="0" disallow="tram rail_urban rail rail_electric ship" speed="11.11" length="14.58" shape="1369.75,2721.82 1364.19,2708.20"/>
        <lane id=":1449_1_1" index="1" disallow="tram rail_urban rail rail_electric ship" speed="11.11" length="14.58" shape="1372.75,2720.46 1367.30,2707.08"/>
    </edge>
    <edge id=":1449_3" function="internal">
        <lane id=":1449_3_0" index="0" disallow="tram rail_urban rail rail_electric ship" speed="11.11" length="11.95" shape="1374.92,2714.12 1365.50,2720.81"/>
        <lane id=":1449_3_1" index="1" disallow="tram rail_urban rail rail_electric ship" speed="11.11" length="11.95" shape="1373.17,2711.31 1363.43,2718.24"/>
        <lane id=":1449_3_2" index="2" disallow="tram rail_urban rail rail_electric ship" speed="11.11" length="11.95" shape="1371.43,2708.51 1361.37,2715.67"/>
    </edge>
    <edge id=":1449_6" function="internal">
        <lane id=":1449_6_0" index="0" disallow="tram rail_urban rail rail_electric ship" speed="11.11" length="5.27" shape="1371.43,2708.51 1370.06,2709.11 1368.92,2709.08 1368.00,2708.40 1367.30,2707.08"/>
    </edge>
    <edge id=":1478_0" function="internal">
        <lane id=":1478_0_0" index="0" disallow="tram rail_urban rail rail_electric ship" speed="13.89" length="9.41" shape="1803.26,2073.47 1798.99,2065.17"/>
        <lane id=":1478_0_1" index="1" disallow="tram rail_urban rail rail_electric ship" speed="13.89" length="9.41" shape="1806.21,2072.00 1801.92,2063.63"/>
        <lane id=":1478_0_2" index="2" disallow="tram rail_urban rail rail_electric ship" speed="13.89" length="9.41" shape="1809.16,2070.53 1804.84,2062.09"/>
    </edge>
    <edge id=":1478_3" function="internal">
        <lane id=":1478_3_0" index="0" disallow="tram rail_urban rail rail_electric ship" speed="12.50" length="7.83" shape="1810.75,2066.12 1808.05,2067.24 1805.68,2067.20 1803.63,2066.00 1801.92,2063.63"/>
        <lane id=":1478_3_1" index="1" disallow="tram rail_urban rail rail_electric ship" speed="12.50" length="7.83" shape="1809.06,2063.28 1807.77,2063.82 1806.63,2063.80 1805.66,2063.23 1804.84,2062.09"/>
    </edge>
    <edge id=":1511_0" function="internal">
        <lane id=":1511_0_0" index="0" disallow="tram rail_urban rail rail_electric ship" speed="12.50" length="7.72" shape="1422.81,1067.78 1421.74,1068.71 1421.22,1069.75 1421.23,1070.89 1421.79,1072.14"/>
        <lane id=":1511_0_1" index="1" disallow="tram rail_urban rail rail_electric ship" speed="12.50" length="7.72" shape="1421.00,1065.02 1418.85,1066.91 1417.80,1069.02 1417.86,1071.36 1419.01,1073.92"/>
    </edge>
    <edge id=":1511_2" function="internal">
        <lane id=":1511_2_0" index="0" disallow="tram rail_urban rail rail_electric ship" speed="13.89" length="10.77" shape="1416.07,1063.06 1421.79,1072.14"/>
        <lane id=":1511_2_1" index="1" disallow="tram rail_urban rail rail_electric ship" speed="13.89" length="10.77" shape="1413.27,1064.81 1419.01,1073.92"/>
        <lane id=":1511_2_2" index="2" disallow="tram rail_urban rail rail_electric ship" speed="13.89" length="10.77" shape="1410.47,1066.55 1416.23,1075.69"/>
    </edge>
    <edge id=":1511_5" function="internal">
        <lane id=":1511_5_0" index="0" disallow="tram rail_urban rail rail_electric ship" speed="12.50" length="7.34" shape="1408.97,1070.65 1412.07,1070.06 1414.78,1070.41 1416.25,1071.23"/>
        <lane id=":1511_5_1" index="1" disallow="tram rail_urban rail rail_electric ship" speed="12.50" length="7.34" shape="1409.98,1073.79 1411.94,1073.41 1413.63,1073.60 1415.06,1074.36 1416.23,1075.69"/>
    </edge>
    <edge id=":1511_7" function="internal">
        <lane id=":1511_7_0" index="0" speed="12.50" length="3.90" shape="1416.25,1071.23 1417.09,1071.69 1419.01,1073.92"/>
    </edge>
    <edge id=":1526_0" function="internal">